* NGSPICE file created from heichips25_can_lehmann_fsm.ext - technology: ihp-sg13g2

* Black-box entry subcircuit for sg13g2_dfrbpq_1 abstract view
.subckt sg13g2_dfrbpq_1 RESET_B VSS VDD D Q CLK
.ends

* Black-box entry subcircuit for sg13g2_a21oi_1 abstract view
.subckt sg13g2_a21oi_1 VSS VDD A1 A2 Y B1
.ends

* Black-box entry subcircuit for sg13g2_o21ai_1 abstract view
.subckt sg13g2_o21ai_1 B1 VDD Y VSS A1 A2
.ends

* Black-box entry subcircuit for sg13g2_decap_8 abstract view
.subckt sg13g2_decap_8 VDD VSS
.ends

* Black-box entry subcircuit for sg13g2_dlygate4sd3_1 abstract view
.subckt sg13g2_dlygate4sd3_1 A VDD VSS X
.ends

* Black-box entry subcircuit for sg13g2_fill_1 abstract view
.subckt sg13g2_fill_1 VDD VSS
.ends

* Black-box entry subcircuit for sg13g2_nand2b_1 abstract view
.subckt sg13g2_nand2b_1 Y B A_N VDD VSS
.ends

* Black-box entry subcircuit for sg13g2_dfrbpq_2 abstract view
.subckt sg13g2_dfrbpq_2 RESET_B VSS VDD D Q CLK
.ends

* Black-box entry subcircuit for sg13g2_buf_8 abstract view
.subckt sg13g2_buf_8 A X VDD VSS
.ends

* Black-box entry subcircuit for sg13g2_nand2_1 abstract view
.subckt sg13g2_nand2_1 Y A B VDD VSS
.ends

* Black-box entry subcircuit for sg13g2_a221oi_1 abstract view
.subckt sg13g2_a221oi_1 VDD VSS B2 C1 B1 A1 Y A2
.ends

* Black-box entry subcircuit for sg13g2_a22oi_1 abstract view
.subckt sg13g2_a22oi_1 Y B1 B2 A2 A1 VDD VSS
.ends

* Black-box entry subcircuit for sg13g2_tiehi abstract view
.subckt sg13g2_tiehi VDD VSS L_HI
.ends

* Black-box entry subcircuit for sg13g2_nand3_1 abstract view
.subckt sg13g2_nand3_1 B C A Y VDD VSS
.ends

* Black-box entry subcircuit for sg13g2_nor2_1 abstract view
.subckt sg13g2_nor2_1 A B Y VDD VSS
.ends

* Black-box entry subcircuit for sg13g2_fill_2 abstract view
.subckt sg13g2_fill_2 VDD VSS
.ends

* Black-box entry subcircuit for sg13g2_or3_1 abstract view
.subckt sg13g2_or3_1 A B C X VDD VSS
.ends

* Black-box entry subcircuit for sg13g2_inv_1 abstract view
.subckt sg13g2_inv_1 VDD Y A VSS
.ends

* Black-box entry subcircuit for sg13g2_nand4_1 abstract view
.subckt sg13g2_nand4_1 B C A Y VDD VSS D
.ends

* Black-box entry subcircuit for sg13g2_antennanp abstract view
.subckt sg13g2_antennanp VDD VSS A
.ends

* Black-box entry subcircuit for sg13g2_or2_1 abstract view
.subckt sg13g2_or2_1 VSS VDD X B A
.ends

* Black-box entry subcircuit for sg13g2_buf_1 abstract view
.subckt sg13g2_buf_1 A X VDD VSS
.ends

* Black-box entry subcircuit for sg13g2_xor2_1 abstract view
.subckt sg13g2_xor2_1 B A X VDD VSS
.ends

* Black-box entry subcircuit for sg13g2_a21o_1 abstract view
.subckt sg13g2_a21o_1 A2 A1 B1 X VDD VSS
.ends

* Black-box entry subcircuit for sg13g2_nand2b_2 abstract view
.subckt sg13g2_nand2b_2 Y B VDD VSS A_N
.ends

* Black-box entry subcircuit for sg13g2_or4_1 abstract view
.subckt sg13g2_or4_1 A B C D X VDD VSS
.ends

* Black-box entry subcircuit for sg13g2_and2_1 abstract view
.subckt sg13g2_and2_1 A B X VDD VSS
.ends

* Black-box entry subcircuit for sg13g2_nor2b_1 abstract view
.subckt sg13g2_nor2b_1 A B_N Y VDD VSS
.ends

* Black-box entry subcircuit for sg13g2_xnor2_1 abstract view
.subckt sg13g2_xnor2_1 Y A B VDD VSS
.ends

* Black-box entry subcircuit for sg13g2_decap_4 abstract view
.subckt sg13g2_decap_4 VDD VSS
.ends

* Black-box entry subcircuit for sg13g2_nor3_1 abstract view
.subckt sg13g2_nor3_1 A B C Y VDD VSS
.ends

* Black-box entry subcircuit for sg13g2_buf_2 abstract view
.subckt sg13g2_buf_2 A X VDD VSS
.ends

* Black-box entry subcircuit for sg13g2_nor4_2 abstract view
.subckt sg13g2_nor4_2 A B C Y VSS VDD D
.ends

* Black-box entry subcircuit for sg13g2_nor4_1 abstract view
.subckt sg13g2_nor4_1 A B C D Y VDD VSS
.ends

* Black-box entry subcircuit for sg13g2_inv_8 abstract view
.subckt sg13g2_inv_8 Y A VDD VSS
.ends

* Black-box entry subcircuit for sg13g2_a21o_2 abstract view
.subckt sg13g2_a21o_2 A2 A1 B1 X VDD VSS
.ends

* Black-box entry subcircuit for sg13g2_inv_4 abstract view
.subckt sg13g2_inv_4 A Y VDD VSS
.ends

* Black-box entry subcircuit for sg13g2_inv_2 abstract view
.subckt sg13g2_inv_2 Y A VDD VSS
.ends

* Black-box entry subcircuit for sg13g2_a21oi_2 abstract view
.subckt sg13g2_a21oi_2 VSS VDD B1 Y A2 A1
.ends

* Black-box entry subcircuit for sg13g2_nand2_2 abstract view
.subckt sg13g2_nand2_2 Y A B VDD VSS
.ends

* Black-box entry subcircuit for sg13g2_nand3b_1 abstract view
.subckt sg13g2_nand3b_1 B C Y VDD VSS A_N
.ends

* Black-box entry subcircuit for sg13g2_nor3_2 abstract view
.subckt sg13g2_nor3_2 A B C Y VDD VSS
.ends

* Black-box entry subcircuit for sg13g2_nor2b_2 abstract view
.subckt sg13g2_nor2b_2 A B_N Y VDD VSS
.ends

* Black-box entry subcircuit for sg13g2_tielo abstract view
.subckt sg13g2_tielo VDD VSS L_LO
.ends

* Black-box entry subcircuit for sg13g2_mux2_1 abstract view
.subckt sg13g2_mux2_1 A0 A1 S X VDD VSS
.ends

* Black-box entry subcircuit for sg13g2_and3_1 abstract view
.subckt sg13g2_and3_1 X A B C VDD VSS
.ends

* Black-box entry subcircuit for sg13g2_nor2_2 abstract view
.subckt sg13g2_nor2_2 A B Y VDD VSS
.ends

* Black-box entry subcircuit for sg13g2_and4_1 abstract view
.subckt sg13g2_and4_1 A B C D X VDD VSS
.ends

.subckt heichips25_can_lehmann_fsm VGND VPWR clk ena rst_n ui_in[0] ui_in[1] ui_in[2]
+ ui_in[3] ui_in[4] ui_in[5] ui_in[6] ui_in[7] uio_in[0] uio_in[1] uio_in[2] uio_in[3]
+ uio_in[4] uio_in[5] uio_in[6] uio_in[7] uio_oe[0] uio_oe[1] uio_oe[2] uio_oe[3]
+ uio_oe[4] uio_oe[5] uio_oe[6] uio_oe[7] uio_out[0] uio_out[1] uio_out[2] uio_out[3]
+ uio_out[4] uio_out[5] uio_out[6] uio_out[7] uo_out[0] uo_out[1] uo_out[2] uo_out[3]
+ uo_out[4] uo_out[5] uo_out[6] uo_out[7]
X_3155_ net43 VGND VPWR net920 controller.counter2.counter_0\[2\] clknet_leaf_8_clk
+ sg13g2_dfrbpq_1
X_3086_ net241 VGND VPWR _0109_ controller.inst_mem.mem_data\[190\] clknet_leaf_21_clk
+ sg13g2_dfrbpq_1
X_2106_ VGND VPWR _1147_ net593 _0069_ _0328_ sg13g2_a21oi_1
X_2037_ net634 VPWR _0294_ VGND net673 net565 sg13g2_o21ai_1
XFILLER_35_461 VPWR VGND sg13g2_decap_8
X_2939_ net625 VPWR _0961_ VGND net758 net550 sg13g2_o21ai_1
Xhold351 _0187_ VPWR VGND net898 sg13g2_dlygate4sd3_1
Xhold340 _0185_ VPWR VGND net887 sg13g2_dlygate4sd3_1
Xhold362 controller.counter2.counter_1\[15\] VPWR VGND net909 sg13g2_dlygate4sd3_1
Xhold373 _0178_ VPWR VGND net920 sg13g2_dlygate4sd3_1
Xhold384 _0177_ VPWR VGND net931 sg13g2_dlygate4sd3_1
Xhold395 controller.counter2.counter_1\[12\] VPWR VGND net942 sg13g2_dlygate4sd3_1
XFILLER_41_453 VPWR VGND sg13g2_decap_8
XFILLER_36_236 VPWR VGND sg13g2_fill_1
X_2724_ net542 VPWR _0826_ VGND net893 _0773_ sg13g2_o21ai_1
X_2655_ _0771_ net448 net947 VPWR VGND sg13g2_nand2b_1
X_3207_ net79 VGND VPWR net719 controller.const_data\[22\] clknet_leaf_17_clk sg13g2_dfrbpq_1
X_2586_ VGND VPWR net913 _0699_ _0706_ _1299_ sg13g2_a21oi_1
X_3138_ net105 VGND VPWR net970 controller.alu_buffer.buffer\[12\] clknet_leaf_7_clk
+ sg13g2_dfrbpq_2
X_3069_ net275 VGND VPWR _0092_ controller.inst_mem.mem_data\[173\] clknet_leaf_25_clk
+ sg13g2_dfrbpq_1
Xhold192 controller.inst_mem.mem_data\[96\] VPWR VGND net739 sg13g2_dlygate4sd3_1
Xhold170 controller.inst_mem.mem_data\[189\] VPWR VGND net717 sg13g2_dlygate4sd3_1
Xhold181 controller.extended_then_action\[1\] VPWR VGND net728 sg13g2_dlygate4sd3_1
Xfanout661 net662 net661 VPWR VGND sg13g2_buf_8
Xfanout650 net654 net650 VPWR VGND sg13g2_buf_8
X_2440_ _0583_ net485 _0582_ VPWR VGND sg13g2_nand2_1
X_2371_ VPWR VGND _0515_ _0503_ _0513_ _1069_ _0147_ _0494_ sg13g2_a221oi_1
X_2707_ net541 VPWR _0813_ VGND net924 _0773_ sg13g2_o21ai_1
X_2569_ _0692_ _0691_ net466 net455 controller.alu_buffer.buffer\[12\] VPWR VGND sg13g2_a22oi_1
X_2638_ _0753_ VPWR _0754_ VGND controller.inst_mem.mem_data\[50\] net491 sg13g2_o21ai_1
X_3120__173 VPWR VGND net173 sg13g2_tiehi
Xfanout480 _0731_ net480 VPWR VGND sg13g2_buf_8
Xfanout491 net493 net491 VPWR VGND sg13g2_buf_8
XFILLER_0_46 VPWR VGND sg13g2_fill_1
X_1940_ _1284_ _1286_ _1283_ _1287_ VPWR VGND sg13g2_nand3_1
X_1871_ _1068_ _1221_ _1222_ VPWR VGND sg13g2_nor2_1
XFILLER_6_471 VPWR VGND sg13g2_fill_2
X_2423_ _0566_ net524 controller.inst_mem.extended_word\[21\] net511 controller.inst_mem.mem_data\[173\]
+ VPWR VGND sg13g2_a22oi_1
X_2285_ VGND VPWR _0429_ _0430_ _0431_ _0428_ sg13g2_a21oi_1
X_2354_ _0499_ VPWR _0500_ VGND net777 net491 sg13g2_o21ai_1
X_3219__266 VPWR VGND net266 sg13g2_tiehi
X_3021__82 VPWR VGND net82 sg13g2_tiehi
XFILLER_31_507 VPWR VGND sg13g2_fill_1
X_3053__307 VPWR VGND net307 sg13g2_tiehi
X_2070_ VGND VPWR _1165_ net560 _0051_ _0310_ sg13g2_a21oi_1
X_2972_ VGND VPWR _0983_ net600 _0286_ _0977_ sg13g2_a21oi_1
X_1923_ net910 net903 _1270_ _1271_ VPWR VGND sg13g2_or3_1
X_1785_ VPWR _1136_ net402 VGND sg13g2_inv_1
X_1854_ VPWR _1205_ net442 VGND sg13g2_inv_1
X_2406_ _0549_ net503 controller.inst_mem.mem_data\[199\] net507 controller.inst_mem.mem_data\[79\]
+ VPWR VGND sg13g2_a22oi_1
X_2268_ _1063_ _0410_ _1062_ _0414_ VPWR VGND _0412_ sg13g2_nand4_1
X_2337_ _0480_ _0481_ _0478_ _0483_ VPWR VGND _0482_ sg13g2_nand4_1
X_2199_ net652 VPWR _0375_ VGND net711 net599 sg13g2_o21ai_1
XFILLER_40_326 VPWR VGND sg13g2_fill_1
XFILLER_20_76 VPWR VGND sg13g2_fill_1
Xhold63 controller.const_data\[9\] VPWR VGND net390 sg13g2_dlygate4sd3_1
Xhold74 _0114_ VPWR VGND net401 sg13g2_dlygate4sd3_1
Xhold30 controller.inst_mem.mem_data\[150\] VPWR VGND net357 sg13g2_dlygate4sd3_1
Xhold52 _0103_ VPWR VGND net379 sg13g2_dlygate4sd3_1
Xhold41 controller.inst_mem.mem_data\[142\] VPWR VGND net368 sg13g2_dlygate4sd3_1
X_2985__154 VPWR VGND net154 sg13g2_tiehi
Xhold96 controller.inst_mem.mem_data\[90\] VPWR VGND net423 sg13g2_dlygate4sd3_1
Xhold85 _0059_ VPWR VGND net412 sg13g2_dlygate4sd3_1
XANTENNA_5 VPWR VGND ui_in[6] sg13g2_antennanp
X_3240_ net310 VGND VPWR net727 controller.inst_mem.mem_data\[55\] clknet_leaf_31_clk
+ sg13g2_dfrbpq_1
XFILLER_47_492 VPWR VGND sg13g2_decap_8
X_3171_ net268 VGND VPWR net912 controller.counter2.counter_1\[2\] clknet_leaf_16_clk
+ sg13g2_dfrbpq_1
XFILLER_39_459 VPWR VGND sg13g2_decap_8
X_2122_ VGND VPWR _1139_ net548 _0077_ _0336_ sg13g2_a21oi_1
X_2053_ net651 VPWR _0302_ VGND controller.inst_mem.mem_data\[124\] net602 sg13g2_o21ai_1
X_2955_ net655 VPWR _0969_ VGND net803 net606 sg13g2_o21ai_1
X_1768_ VPWR _1119_ net697 VGND sg13g2_inv_1
X_1837_ VPWR _1188_ net859 VGND sg13g2_inv_1
X_2886_ VGND VPWR _1026_ net582 _0243_ _0934_ sg13g2_a21oi_1
X_1906_ VGND VPWR _1257_ _1256_ _1242_ sg13g2_or2_1
X_1699_ VPWR _1050_ net713 VGND sg13g2_inv_1
XFILLER_45_407 VPWR VGND sg13g2_decap_8
XFILLER_25_153 VPWR VGND sg13g2_fill_2
Xoutput20 net20 uo_out[5] VPWR VGND sg13g2_buf_1
X_2671_ VGND VPWR _0782_ _0783_ _0178_ _0784_ sg13g2_a21oi_1
X_2740_ net911 VPWR _0838_ VGND controller.counter2.counter_1\[1\] controller.counter2.counter_1\[0\]
+ sg13g2_o21ai_1
X_3223_ net234 VGND VPWR net870 controller.inst_mem.mem_data\[38\] clknet_leaf_36_clk
+ sg13g2_dfrbpq_1
X_3154_ net47 VGND VPWR net931 controller.counter2.counter_0\[1\] clknet_leaf_8_clk
+ sg13g2_dfrbpq_2
X_3085_ net243 VGND VPWR net439 controller.inst_mem.mem_data\[189\] clknet_leaf_4_clk
+ sg13g2_dfrbpq_1
X_2105_ net650 VPWR _0328_ VGND net357 net593 sg13g2_o21ai_1
X_2036_ VGND VPWR _1182_ net566 _0034_ _0293_ sg13g2_a21oi_1
X_2938_ VGND VPWR _1000_ net556 _0269_ _0960_ sg13g2_a21oi_1
Xhold363 controller.counter2.counter_1\[5\] VPWR VGND net910 sg13g2_dlygate4sd3_1
Xhold341 controller.counter2.counter_1\[6\] VPWR VGND net888 sg13g2_dlygate4sd3_1
Xhold352 controller.counter2.counter_0\[13\] VPWR VGND net899 sg13g2_dlygate4sd3_1
Xhold385 controller.counter2.counter_1\[7\] VPWR VGND net932 sg13g2_dlygate4sd3_1
Xhold374 controller.counter2.counter_1\[8\] VPWR VGND net921 sg13g2_dlygate4sd3_1
X_2869_ net658 VPWR _0926_ VGND net396 net612 sg13g2_o21ai_1
Xhold396 controller.extended_cond.opcode\[1\] VPWR VGND net943 sg13g2_dlygate4sd3_1
Xhold330 controller.inst_mem.mem_data\[38\] VPWR VGND net877 sg13g2_dlygate4sd3_1
XFILLER_45_248 VPWR VGND sg13g2_fill_2
XFILLER_41_432 VPWR VGND sg13g2_decap_8
Xclkbuf_3_6__f_clk clknet_0_clk clknet_3_6__leaf_clk VPWR VGND sg13g2_buf_8
XFILLER_44_281 VPWR VGND sg13g2_fill_1
X_2723_ VPWR VGND _0824_ net447 net449 net694 _0825_ net480 sg13g2_a221oi_1
X_2654_ _0767_ _0768_ _0770_ VPWR VGND sg13g2_nor2_1
X_2585_ VGND VPWR net459 _0704_ _0171_ _0705_ sg13g2_a21oi_1
X_3206_ net87 VGND VPWR _0229_ controller.const_data\[21\] clknet_leaf_17_clk sg13g2_dfrbpq_1
X_3137_ net109 VGND VPWR net976 controller.alu_buffer.buffer\[11\] clknet_leaf_7_clk
+ sg13g2_dfrbpq_2
X_2019_ net642 VPWR _1336_ VGND controller.inst_mem.mem_data\[107\] net581 sg13g2_o21ai_1
X_3068_ net277 VGND VPWR net745 controller.inst_mem.mem_data\[172\] clknet_leaf_25_clk
+ sg13g2_dfrbpq_1
X_3107__199 VPWR VGND net199 sg13g2_tiehi
Xhold160 controller.const_data\[13\] VPWR VGND net707 sg13g2_dlygate4sd3_1
Xfanout640 net641 net640 VPWR VGND sg13g2_buf_8
Xhold171 controller.const_data\[21\] VPWR VGND net718 sg13g2_dlygate4sd3_1
Xhold182 controller.inst_mem.extended_word\[3\] VPWR VGND net729 sg13g2_dlygate4sd3_1
Xfanout651 net652 net651 VPWR VGND sg13g2_buf_8
Xhold193 controller.inst_mem.mem_data\[42\] VPWR VGND net740 sg13g2_dlygate4sd3_1
Xfanout662 net663 net662 VPWR VGND sg13g2_buf_8
XFILLER_41_251 VPWR VGND sg13g2_fill_2
XFILLER_49_340 VPWR VGND sg13g2_fill_1
X_2370_ _0494_ _0514_ _0515_ VPWR VGND sg13g2_nor2_1
X_2706_ VPWR VGND _0811_ net447 net449 net713 _0812_ net480 sg13g2_a221oi_1
XFILLER_20_479 VPWR VGND sg13g2_fill_2
X_2499_ net973 VPWR _0634_ VGND controller.alu_buffer.buffer\[6\] _1285_ sg13g2_o21ai_1
X_2568_ _1296_ net948 _0691_ VPWR VGND sg13g2_xor2_1
X_2637_ net508 controller.inst_mem.mem_data\[74\] _0752_ _0753_ VPWR VGND sg13g2_a21o_1
XFILLER_23_76 VPWR VGND sg13g2_fill_2
Xfanout470 net473 net470 VPWR VGND sg13g2_buf_8
Xfanout481 net484 net481 VPWR VGND sg13g2_buf_8
Xfanout492 net493 net492 VPWR VGND sg13g2_buf_1
X_1870_ _1221_ net533 VPWR VGND net535 sg13g2_nand2b_2
X_2995__134 VPWR VGND net134 sg13g2_tiehi
X_2422_ _0565_ controller.inst_mem.mem_data\[197\] net503 VPWR VGND sg13g2_nand2_1
X_2353_ _0496_ _0497_ _0495_ _0499_ VPWR VGND _0498_ sg13g2_nand4_1
XFILLER_37_310 VPWR VGND sg13g2_fill_2
X_2284_ _0430_ _1085_ controller.extended_cond.opcode\[1\] VPWR VGND sg13g2_nand2_1
X_3247__198 VPWR VGND net198 sg13g2_tiehi
X_1999_ net662 VPWR _1326_ VGND net421 net618 sg13g2_o21ai_1
XFILLER_19_365 VPWR VGND sg13g2_fill_1
X_1922_ controller.counter2.counter_1\[3\] controller.counter2.counter_1\[2\] controller.counter2.counter_1\[1\]
+ controller.counter2.counter_1\[0\] _1270_ VPWR VGND sg13g2_or4_1
XFILLER_34_357 VPWR VGND sg13g2_fill_1
X_2971_ net649 VPWR _0977_ VGND controller.inst_mem.mem_data\[78\] net595 sg13g2_o21ai_1
X_3236__91 VPWR VGND net91 sg13g2_tiehi
X_1853_ VPWR _1204_ net684 VGND sg13g2_inv_1
X_1784_ VPWR _1135_ net338 VGND sg13g2_inv_1
X_2336_ VGND VPWR controller.inst_mem.mem_data\[108\] net498 _0482_ net516 sg13g2_a21oi_1
X_2405_ _0548_ net495 controller.inst_mem.mem_data\[103\] net511 controller.inst_mem.mem_data\[175\]
+ VPWR VGND sg13g2_a22oi_1
X_2267_ _0410_ _0412_ _1063_ _0413_ VPWR VGND sg13g2_nand3_1
XFILLER_29_129 VPWR VGND sg13g2_fill_1
X_2198_ VGND VPWR _1101_ net603 _0115_ _0374_ sg13g2_a21oi_1
X_3189__196 VPWR VGND net196 sg13g2_tiehi
XFILLER_48_449 VPWR VGND sg13g2_decap_8
Xhold64 _0218_ VPWR VGND net391 sg13g2_dlygate4sd3_1
Xhold86 controller.inst_mem.mem_data\[47\] VPWR VGND net413 sg13g2_dlygate4sd3_1
Xhold53 controller.inst_mem.mem_data\[190\] VPWR VGND net380 sg13g2_dlygate4sd3_1
Xhold20 _0282_ VPWR VGND net347 sg13g2_dlygate4sd3_1
Xhold31 _0070_ VPWR VGND net358 sg13g2_dlygate4sd3_1
Xhold97 _0010_ VPWR VGND net424 sg13g2_dlygate4sd3_1
Xhold75 controller.inst_mem.mem_data\[160\] VPWR VGND net402 sg13g2_dlygate4sd3_1
Xhold42 _0062_ VPWR VGND net369 sg13g2_dlygate4sd3_1
XANTENNA_6 VPWR VGND uio_in[0] sg13g2_antennanp
X_3196__167 VPWR VGND net167 sg13g2_tiehi
X_3170_ net272 VGND VPWR _0193_ controller.counter2.counter_1\[1\] clknet_leaf_16_clk
+ sg13g2_dfrbpq_2
XFILLER_47_471 VPWR VGND sg13g2_decap_8
XFILLER_39_438 VPWR VGND sg13g2_decap_8
X_2052_ VGND VPWR _1174_ net620 _0042_ _0301_ sg13g2_a21oi_1
X_2121_ net625 VPWR _0336_ VGND net794 net548 sg13g2_o21ai_1
X_2954_ VGND VPWR _0992_ net572 _0277_ _0968_ sg13g2_a21oi_1
X_2885_ net642 VPWR _0934_ VGND net748 net582 sg13g2_o21ai_1
X_1905_ VGND VPWR _1256_ _1255_ _1249_ sg13g2_or2_1
X_1698_ VPWR _1049_ net681 VGND sg13g2_inv_1
X_1836_ VPWR _1187_ net855 VGND sg13g2_inv_1
X_1767_ VPWR _1118_ net733 VGND sg13g2_inv_1
XFILLER_1_209 VPWR VGND sg13g2_fill_2
X_2319_ _0463_ _0464_ _0465_ VPWR VGND sg13g2_and2_1
XFILLER_38_493 VPWR VGND sg13g2_decap_8
Xoutput21 net21 uo_out[6] VPWR VGND sg13g2_buf_1
X_3117__179 VPWR VGND net179 sg13g2_tiehi
XFILLER_48_268 VPWR VGND sg13g2_fill_1
XFILLER_44_485 VPWR VGND sg13g2_decap_8
X_2670_ net540 VPWR _0784_ VGND net919 net444 sg13g2_o21ai_1
X_3153_ net51 VGND VPWR _0176_ controller.counter2.counter_0\[0\] clknet_leaf_8_clk
+ sg13g2_dfrbpq_2
X_3222_ net242 VGND VPWR _0245_ controller.inst_mem.mem_data\[37\] clknet_leaf_33_clk
+ sg13g2_dfrbpq_1
X_2104_ VGND VPWR _1148_ net598 _0068_ _0327_ sg13g2_a21oi_1
XFILLER_35_496 VPWR VGND sg13g2_decap_8
X_2035_ net633 VPWR _0293_ VGND controller.inst_mem.mem_data\[115\] net566 sg13g2_o21ai_1
X_3084_ net245 VGND VPWR _0107_ controller.inst_mem.mem_data\[188\] clknet_leaf_4_clk
+ sg13g2_dfrbpq_1
X_2868_ VGND VPWR _1035_ net613 _0234_ _0925_ sg13g2_a21oi_1
X_2937_ net629 VPWR _0960_ VGND controller.inst_mem.mem_data\[61\] net556 sg13g2_o21ai_1
Xhold397 controller.counter2.counter_0\[4\] VPWR VGND net944 sg13g2_dlygate4sd3_1
Xhold353 _0189_ VPWR VGND net900 sg13g2_dlygate4sd3_1
Xhold342 _0198_ VPWR VGND net889 sg13g2_dlygate4sd3_1
Xhold364 controller.counter2.counter_1\[2\] VPWR VGND net911 sg13g2_dlygate4sd3_1
X_2799_ _0884_ _0885_ _0886_ VPWR VGND sg13g2_nor2b_1
Xhold386 controller.alu_buffer.buffer\[2\] VPWR VGND net933 sg13g2_dlygate4sd3_1
Xhold375 controller.alu_buffer.buffer\[15\] VPWR VGND net922 sg13g2_dlygate4sd3_1
Xhold331 controller.extended_then_action\[5\] VPWR VGND net878 sg13g2_dlygate4sd3_1
Xhold320 controller.inst_mem.mem_data\[157\] VPWR VGND net867 sg13g2_dlygate4sd3_1
X_1819_ VPWR _1170_ net666 VGND sg13g2_inv_1
XFILLER_41_488 VPWR VGND sg13g2_decap_8
XFILLER_41_422 VPWR VGND sg13g2_fill_1
XFILLER_9_128 VPWR VGND sg13g2_fill_2
XFILLER_13_135 VPWR VGND sg13g2_fill_2
X_3234__123 VPWR VGND net123 sg13g2_tiehi
X_3245__230 VPWR VGND net230 sg13g2_tiehi
X_2722_ _0417_ net893 _0824_ VPWR VGND sg13g2_xor2_1
XFILLER_32_488 VPWR VGND sg13g2_decap_8
XFILLER_32_477 VPWR VGND sg13g2_fill_1
XFILLER_32_466 VPWR VGND sg13g2_fill_1
X_2653_ _0769_ net474 _0765_ VPWR VGND sg13g2_xnor2_1
X_2584_ net537 VPWR _0705_ VGND net956 net458 sg13g2_o21ai_1
X_3205_ net95 VGND VPWR net345 controller.const_data\[20\] clknet_leaf_15_clk sg13g2_dfrbpq_1
X_3136_ net113 VGND VPWR net935 controller.alu_buffer.buffer\[10\] clknet_leaf_7_clk
+ sg13g2_dfrbpq_2
X_3067_ net279 VGND VPWR _0090_ controller.inst_mem.mem_data\[171\] clknet_leaf_24_clk
+ sg13g2_dfrbpq_1
X_2018_ VGND VPWR _1191_ net585 _0025_ _1335_ sg13g2_a21oi_1
XFILLER_10_105 VPWR VGND sg13g2_fill_2
Xhold172 _0230_ VPWR VGND net719 sg13g2_dlygate4sd3_1
Xfanout663 rst_n net663 VPWR VGND sg13g2_buf_8
Xfanout641 net663 net641 VPWR VGND sg13g2_buf_1
Xhold161 controller.inst_mem.mem_data\[98\] VPWR VGND net708 sg13g2_dlygate4sd3_1
Xhold150 controller.inst_mem.mem_data\[177\] VPWR VGND net697 sg13g2_dlygate4sd3_1
Xhold183 controller.inst_mem.mem_data\[111\] VPWR VGND net730 sg13g2_dlygate4sd3_1
Xfanout630 net631 net630 VPWR VGND sg13g2_buf_8
Xfanout652 net653 net652 VPWR VGND sg13g2_buf_8
Xhold194 _0251_ VPWR VGND net741 sg13g2_dlygate4sd3_1
XFILLER_37_75 VPWR VGND sg13g2_fill_1
XFILLER_49_396 VPWR VGND sg13g2_decap_8
XFILLER_37_503 VPWR VGND sg13g2_decap_4
X_2705_ _0811_ net924 _0413_ VPWR VGND sg13g2_xnor2_1
X_2636_ _0750_ _0751_ _0749_ _0752_ VPWR VGND sg13g2_nand3_1
X_2498_ VPWR VGND net967 net464 net484 net527 _0633_ net472 sg13g2_a221oi_1
X_2567_ VPWR VGND controller.alu_buffer.buffer\[21\] net461 net481 net945 _0690_ net470
+ sg13g2_a221oi_1
XFILLER_43_506 VPWR VGND sg13g2_fill_2
X_3119_ net175 VGND VPWR net354 controller.inst_mem.extended_word\[23\] clknet_leaf_31_clk
+ sg13g2_dfrbpq_1
Xfanout471 net473 net471 VPWR VGND sg13g2_buf_1
Xfanout482 net484 net482 VPWR VGND sg13g2_buf_1
Xfanout460 _0596_ net460 VPWR VGND sg13g2_buf_8
Xfanout493 _1232_ net493 VPWR VGND sg13g2_buf_8
X_3199__143 VPWR VGND net143 sg13g2_tiehi
XFILLER_46_399 VPWR VGND sg13g2_decap_8
XFILLER_34_506 VPWR VGND sg13g2_fill_2
X_2283_ _1086_ VPWR _0429_ VGND controller.extended_cond.opcode\[0\] net1 sg13g2_o21ai_1
X_2421_ _1081_ net490 _0438_ _0564_ VPWR VGND sg13g2_or3_1
X_2352_ VGND VPWR controller.inst_mem.mem_data\[176\] net503 _0498_ net517 sg13g2_a21oi_1
XFILLER_25_506 VPWR VGND sg13g2_fill_2
XFILLER_20_200 VPWR VGND sg13g2_fill_1
X_1998_ VGND VPWR _1201_ net617 _0015_ _1325_ sg13g2_a21oi_1
X_3000__124 VPWR VGND net124 sg13g2_tiehi
X_2619_ VPWR VGND controller.inst_mem.mem_data\[148\] net518 net521 controller.inst_mem.mem_data\[124\]
+ _0735_ net500 sg13g2_a221oi_1
XFILLER_28_333 VPWR VGND sg13g2_fill_2
XFILLER_1_0 VPWR VGND sg13g2_fill_2
XFILLER_19_322 VPWR VGND sg13g2_fill_2
X_1921_ net911 controller.counter2.counter_1\[1\] net892 _1269_ VPWR VGND sg13g2_nor3_1
X_1852_ VPWR _1203_ net342 VGND sg13g2_inv_1
X_2970_ VGND VPWR _0984_ net600 _0285_ _0976_ sg13g2_a21oi_1
X_1783_ VPWR _1134_ net851 VGND sg13g2_inv_1
X_2266_ controller.counter2.counter_0\[9\] controller.counter2.counter_0\[8\] _0412_
+ VPWR VGND sg13g2_nor2_1
X_2335_ _0481_ _0479_ controller.inst_mem.mem_data\[132\] net523 controller.inst_mem.extended_word\[4\]
+ VPWR VGND sg13g2_a22oi_1
X_2404_ VPWR VGND controller.inst_mem.mem_data\[151\] net518 net520 controller.inst_mem.mem_data\[127\]
+ _0547_ net499 sg13g2_a221oi_1
X_2197_ net651 VPWR _0374_ VGND controller.inst_mem.mem_data\[196\] net602 sg13g2_o21ai_1
XFILLER_48_428 VPWR VGND sg13g2_decap_8
Xhold21 controller.const_data\[15\] VPWR VGND net348 sg13g2_dlygate4sd3_1
Xhold54 _0110_ VPWR VGND net381 sg13g2_dlygate4sd3_1
Xhold10 _0088_ VPWR VGND net337 sg13g2_dlygate4sd3_1
Xhold87 controller.inst_mem.mem_data\[80\] VPWR VGND net414 sg13g2_dlygate4sd3_1
Xhold43 controller.inst_mem.mem_data\[88\] VPWR VGND net370 sg13g2_dlygate4sd3_1
Xhold76 controller.inst_mem.extended_word\[20\] VPWR VGND net403 sg13g2_dlygate4sd3_1
Xhold65 controller.inst_mem.extended_word\[19\] VPWR VGND net392 sg13g2_dlygate4sd3_1
Xhold32 controller.inst_mem.mem_data\[165\] VPWR VGND net359 sg13g2_dlygate4sd3_1
Xhold98 controller.inst_mem.mem_data\[166\] VPWR VGND net425 sg13g2_dlygate4sd3_1
XFILLER_43_188 VPWR VGND sg13g2_fill_1
XFILLER_43_177 VPWR VGND sg13g2_fill_2
XANTENNA_7 VPWR VGND uio_in[1] sg13g2_antennanp
X_2120_ VGND VPWR _1140_ net555 _0076_ _0335_ sg13g2_a21oi_1
XFILLER_47_450 VPWR VGND sg13g2_decap_8
X_2051_ net661 VPWR _0301_ VGND controller.inst_mem.mem_data\[123\] net620 sg13g2_o21ai_1
XFILLER_34_188 VPWR VGND sg13g2_fill_1
X_1835_ VPWR _1186_ net828 VGND sg13g2_inv_1
X_2884_ VGND VPWR _1027_ net583 _0242_ _0933_ sg13g2_a21oi_1
X_1904_ net514 _1022_ _1254_ _1255_ VPWR VGND sg13g2_a21o_1
X_2953_ net638 VPWR _0968_ VGND controller.inst_mem.mem_data\[69\] net572 sg13g2_o21ai_1
X_1697_ VPWR _1048_ net372 VGND sg13g2_inv_1
X_3255__254 VPWR VGND net254 sg13g2_tiehi
X_1766_ VPWR _1117_ net706 VGND sg13g2_inv_1
XFILLER_38_472 VPWR VGND sg13g2_decap_8
X_2318_ _0464_ _1019_ net515 VPWR VGND sg13g2_nand2_1
X_2249_ net653 VPWR _0400_ VGND net353 net598 sg13g2_o21ai_1
XFILLER_40_158 VPWR VGND sg13g2_fill_2
XFILLER_25_133 VPWR VGND sg13g2_fill_1
Xoutput22 net22 uo_out[7] VPWR VGND sg13g2_buf_1
XFILLER_0_276 VPWR VGND sg13g2_fill_1
XFILLER_44_464 VPWR VGND sg13g2_decap_8
XFILLER_31_158 VPWR VGND sg13g2_fill_1
XFILLER_12_394 VPWR VGND sg13g2_fill_1
X_3221_ net250 VGND VPWR net749 controller.inst_mem.mem_data\[36\] clknet_leaf_33_clk
+ sg13g2_dfrbpq_1
X_2103_ net653 VPWR _0327_ VGND net361 net598 sg13g2_o21ai_1
X_3083_ net247 VGND VPWR net815 controller.inst_mem.mem_data\[187\] clknet_leaf_3_clk
+ sg13g2_dfrbpq_1
X_3152_ net53 VGND VPWR net918 controller.output_controller.keep\[2\] clknet_leaf_1_clk
+ sg13g2_dfrbpq_1
XFILLER_35_475 VPWR VGND sg13g2_decap_8
X_3222__242 VPWR VGND net242 sg13g2_tiehi
X_2034_ VGND VPWR _1183_ net566 _0033_ _0292_ sg13g2_a21oi_1
X_2867_ net659 VPWR _0925_ VGND controller.const_data\[26\] net613 sg13g2_o21ai_1
X_2798_ net926 VPWR _0885_ VGND controller.counter2.counter_1\[12\] _1277_ sg13g2_o21ai_1
Xhold310 controller.inst_mem.mem_data\[69\] VPWR VGND net857 sg13g2_dlygate4sd3_1
X_1818_ VPWR _1169_ net798 VGND sg13g2_inv_1
X_2936_ VGND VPWR _1001_ net560 _0268_ _0959_ sg13g2_a21oi_1
Xhold365 _0194_ VPWR VGND net912 sg13g2_dlygate4sd3_1
Xhold332 controller.counter2.counter_0\[7\] VPWR VGND net879 sg13g2_dlygate4sd3_1
Xhold343 controller.counter2.counter_1\[3\] VPWR VGND net890 sg13g2_dlygate4sd3_1
Xhold354 controller.counter2.counter_1\[9\] VPWR VGND net901 sg13g2_dlygate4sd3_1
X_1749_ VPWR _1100_ net843 VGND sg13g2_inv_1
Xhold387 _0644_ VPWR VGND net934 sg13g2_dlygate4sd3_1
Xhold376 _0164_ VPWR VGND net923 sg13g2_dlygate4sd3_1
Xhold398 controller.alu_buffer.buffer\[19\] VPWR VGND net945 sg13g2_dlygate4sd3_1
Xhold321 controller.inst_mem.mem_data\[103\] VPWR VGND net868 sg13g2_dlygate4sd3_1
XFILLER_42_76 VPWR VGND sg13g2_fill_1
XFILLER_41_467 VPWR VGND sg13g2_decap_8
XFILLER_49_501 VPWR VGND sg13g2_decap_8
X_2721_ _0822_ _0823_ _0189_ VPWR VGND sg13g2_nor2_1
X_2652_ _0747_ _0765_ _0768_ VPWR VGND sg13g2_and2_1
XFILLER_8_173 VPWR VGND sg13g2_fill_1
X_3204_ net103 VGND VPWR _0227_ controller.const_data\[19\] clknet_leaf_15_clk sg13g2_dfrbpq_1
X_2583_ _0702_ _0701_ _0703_ _0704_ VPWR VGND sg13g2_a21o_1
X_3135_ net117 VGND VPWR net964 controller.alu_buffer.buffer\[9\] clknet_leaf_7_clk
+ sg13g2_dfrbpq_2
X_3066_ net281 VGND VPWR net754 controller.inst_mem.mem_data\[170\] clknet_leaf_24_clk
+ sg13g2_dfrbpq_1
X_2017_ net643 VPWR _1335_ VGND net416 net585 sg13g2_o21ai_1
X_3028__68 VPWR VGND net68 sg13g2_tiehi
X_2919_ net646 VPWR _0951_ VGND controller.inst_mem.mem_data\[52\] net588 sg13g2_o21ai_1
Xhold140 controller.const_data\[25\] VPWR VGND net687 sg13g2_dlygate4sd3_1
Xhold162 _0018_ VPWR VGND net709 sg13g2_dlygate4sd3_1
Xhold151 _0097_ VPWR VGND net698 sg13g2_dlygate4sd3_1
XFILLER_46_504 VPWR VGND sg13g2_decap_4
Xfanout620 net621 net620 VPWR VGND sg13g2_buf_1
Xhold195 controller.inst_mem.mem_data\[123\] VPWR VGND net742 sg13g2_dlygate4sd3_1
X_3010__104 VPWR VGND net104 sg13g2_tiehi
Xhold184 _0031_ VPWR VGND net731 sg13g2_dlygate4sd3_1
Xfanout642 net645 net642 VPWR VGND sg13g2_buf_8
Xhold173 controller.inst_mem.mem_data\[33\] VPWR VGND net720 sg13g2_dlygate4sd3_1
Xfanout631 net635 net631 VPWR VGND sg13g2_buf_2
Xfanout653 net654 net653 VPWR VGND sg13g2_buf_8
X_3060__293 VPWR VGND net293 sg13g2_tiehi
XFILLER_49_375 VPWR VGND sg13g2_decap_8
XFILLER_49_320 VPWR VGND sg13g2_fill_1
X_2704_ _0809_ _0810_ _0185_ VPWR VGND sg13g2_nor2_1
X_2635_ _0751_ net525 controller.inst_mem.extended_word\[18\] net496 controller.inst_mem.mem_data\[98\]
+ VPWR VGND sg13g2_a22oi_1
XFILLER_20_459 VPWR VGND sg13g2_fill_2
X_2497_ VGND VPWR _0629_ _0631_ _0156_ _0632_ sg13g2_a21oi_1
X_2566_ VGND VPWR _0685_ _0688_ _0168_ _0689_ sg13g2_a21oi_1
X_3049_ net315 VGND VPWR net772 controller.inst_mem.mem_data\[153\] clknet_leaf_29_clk
+ sg13g2_dfrbpq_1
X_3118_ net177 VGND VPWR _0141_ controller.inst_mem.extended_word\[22\] clknet_leaf_26_clk
+ sg13g2_dfrbpq_1
XFILLER_23_56 VPWR VGND sg13g2_fill_2
XFILLER_46_312 VPWR VGND sg13g2_fill_2
Xfanout450 net451 net450 VPWR VGND sg13g2_buf_8
Xfanout483 net484 net483 VPWR VGND sg13g2_buf_8
Xfanout472 net473 net472 VPWR VGND sg13g2_buf_8
Xfanout461 net465 net461 VPWR VGND sg13g2_buf_8
Xfanout494 net497 net494 VPWR VGND sg13g2_buf_8
X_3242__278 VPWR VGND net278 sg13g2_tiehi
X_2420_ controller.alu_buffer.buffer\[0\] _0562_ _0563_ VPWR VGND sg13g2_nor2_1
X_2282_ net2 _0427_ _0428_ VPWR VGND sg13g2_nor2_1
X_2351_ _0497_ _0479_ controller.inst_mem.mem_data\[128\] net511 controller.inst_mem.mem_data\[152\]
+ VPWR VGND sg13g2_a22oi_1
X_1997_ net660 VPWR _1325_ VGND net739 net617 sg13g2_o21ai_1
X_2549_ VPWR VGND net952 net461 net481 controller.alu_buffer.buffer\[16\] _0675_ net470
+ sg13g2_a221oi_1
X_2618_ _0734_ net508 controller.inst_mem.mem_data\[76\] net512 controller.inst_mem.mem_data\[172\]
+ VPWR VGND sg13g2_a22oi_1
XFILLER_16_507 VPWR VGND sg13g2_fill_1
X_3127__149 VPWR VGND net149 sg13g2_tiehi
XFILLER_46_175 VPWR VGND sg13g2_fill_1
X_1851_ VPWR _1202_ net801 VGND sg13g2_inv_1
X_1920_ net17 _1267_ _1268_ VPWR VGND sg13g2_nand2_1
X_2403_ VGND VPWR _0546_ _0439_ _1079_ sg13g2_or2_1
X_1782_ VPWR _1133_ net732 VGND sg13g2_inv_1
X_2265_ _0411_ _1063_ _0410_ VPWR VGND sg13g2_nand2_1
X_2196_ VGND VPWR _1102_ net620 _0114_ _0373_ sg13g2_a21oi_1
XFILLER_27_0 VPWR VGND sg13g2_fill_1
X_2334_ _0480_ net502 controller.inst_mem.mem_data\[180\] net510 controller.inst_mem.mem_data\[156\]
+ VPWR VGND sg13g2_a22oi_1
XFILLER_48_407 VPWR VGND sg13g2_decap_8
Xhold22 _0224_ VPWR VGND net349 sg13g2_dlygate4sd3_1
Xhold11 controller.inst_mem.mem_data\[161\] VPWR VGND net338 sg13g2_dlygate4sd3_1
XFILLER_29_77 VPWR VGND sg13g2_fill_2
Xhold99 controller.inst_mem.mem_data\[57\] VPWR VGND net426 sg13g2_dlygate4sd3_1
Xhold88 _0000_ VPWR VGND net415 sg13g2_dlygate4sd3_1
Xhold44 _0008_ VPWR VGND net371 sg13g2_dlygate4sd3_1
Xhold55 controller.inst_mem.mem_data\[125\] VPWR VGND net382 sg13g2_dlygate4sd3_1
Xhold66 _0139_ VPWR VGND net393 sg13g2_dlygate4sd3_1
Xhold77 _0140_ VPWR VGND net404 sg13g2_dlygate4sd3_1
Xhold33 _0085_ VPWR VGND net360 sg13g2_dlygate4sd3_1
XANTENNA_8 VPWR VGND uio_in[2] sg13g2_antennanp
X_2050_ VGND VPWR _1175_ net621 _0041_ _0300_ sg13g2_a21oi_1
X_2952_ VGND VPWR _0993_ net572 _0276_ _0967_ sg13g2_a21oi_1
X_1834_ VPWR _1185_ net730 VGND sg13g2_inv_1
X_1765_ VPWR _1116_ net398 VGND sg13g2_inv_1
X_1903_ VGND VPWR controller.inst_mem.extended_word\[6\] net523 _1254_ _1253_ sg13g2_a21oi_1